%Mem=61440MB 
%NProc=8 

#P HF/6-31G(d)  SCF(Conver=8,XQC,MaxConventionalCycles=64,MaxCycle=128) NoSymm Test 
   Pop=chelpg IOp(6/33=2) GFinput GFprint 

 MEP step - Input generated by PyRED MOLECULE-1 

0 1 
O        0.962659         0.000000        -0.000000
H        0.000000         0.000000        -0.000000
H        1.214710         0.929076        -0.000000
 

